Circuit: * Lab #3 MISPI

Fatal Error: Unknown SPICE device type ">" in ">"
